[TITLE]
Exported by StormDesk 4.0.4

Exported by StormDesk 4.0.4

[OPTIONS]
;;Option             Value
FLOW_UNITS           CMS
INFILTRATION         HORTON
FLOW_ROUTING         DYNWAVE
LINK_OFFSETS         ELEVATION
MIN_SLOPE            0
ALLOW_PONDING        YES
SKIP_STEADY_STATE    NO

START_DATE           09/02/2023
START_TIME           00:00:00
REPORT_START_DATE    01/01/2020
REPORT_START_TIME    00:00:00
END_DATE             09/02/2023
END_TIME             00:05:00
SWEEP_START          01/01
SWEEP_END            12/31
DRY_DAYS             5
REPORT_STEP          00:05:00
WET_STEP             00:05:00
DRY_STEP             01:00:00
ROUTING_STEP         00:00:15
RULE_STEP            00:00:00

INERTIAL_DAMPING     PARTIAL
NORMAL_FLOW_LIMITED  BOTH
FORCE_MAIN_EQUATION  H-W
VARIABLE_STEP        0.75
LENGTHENING_STEP     0
MIN_SURFAREA         12.566
MAX_TRIALS           8
HEAD_TOLERANCE       0.005
SYS_FLOW_TOL         0
LAT_FLOW_TOL         0
MINIMUM_STEP         0.5
THREADS              8

[FILES]
;;Interfacing Files

[EVAPORATION]
;;Data Source    Parameters
;;-------------- ----------------
CONSTANT         0               
DRY_ONLY         NO

[TEMPERATURE]
;;Data Element     Values     

[ADJUSTMENTS]
;;Parameter        Monthly Adjustments

[RAINGAGES]
;;Name           Format    Interval SCF      Source    
;;-------------- --------- ------ ------ ----------

[SUBCATCHMENTS]
;;Name           Rain Gage        Outlet           Area     %Imperv  Width    %Slope   CurbLen  SnowPack        
;;-------------- ---------------- ---------------- -------- -------- -------- -------- -------- ----------------

[SUBAREAS]
;;Subcatchment   N-Imperv   N-Perv     S-Imperv   S-Perv     PctZero    RouteTo    PctRouted
;;-------------- ---------- ---------- ---------- ---------- ---------- ---------- ----------

[INFILTRATION]
;;Subcatchment   Param1     Param2     Param3     Param4     Param5  
;;-------------- ---------- ---------- ---------- ---------- ----------
[LID_CONTROLS]
;;Name           Type/Layer Parameters
;;-------------- ---------- ----------

[LID_USAGE]
;;Subcatchment   LID Process      Number  Area       Width      InitSat    FromImp    ToPerv     RptFile                  DrainTo          FromPerv  
;;-------------- ---------------- ------- ---------- ---------- ---------- ---------- ---------- ------------------------ ---------------- ----------

[AQUIFERS]
;;Name           Por    WP     FC     Ksat   Kslope Tslope ETu    ETs    Seep   Ebot   Egw    Umc    ETupat 
;;-------------- ------ ------ ------ ------ ------ ------ ------ ------ ------ ------ ------ ------ ------

[GROUNDWATER]
;;Subcatchment   Aquifer          Node             Esurf  A1     B1     A2     B2     A3     Dsw    Egwt   Ebot   Wgr    Umc   
;;-------------- ---------------- ---------------- ------ ------ ------ ------ ------ ------ ------ ------ ------ ------ ------

[GWF]
;;Subcatchment   Flow    Equation
;;-------------- ------- --------

[SNOWPACKS]
;;Name           Surface    Parameters
;;-------------- ---------- ----------

[JUNCTIONS]
;;Name           Elevation  MaxDepth   InitDepth  SurDepth   Aponded   
;;-------------- ---------- ---------- ---------- ---------- ----------
SCH1006763      -0.6            5.511175124     0               0.0017313957214355469 0
SCH1006768	-2.37	1.37	0	1000	0
SCH1006769	-0.83	4.999543835	0	1000	0
SCH1006770	-1.6	6.553847422	0	1000	0
SCH1006772	2.37	1.674471962	0	1000	0
SCH1006774	2.45	1.574997083	0	1000	0
SCH1006820	3.25	0.917959189	0	1000	0
SCH1006821      2.37            2.63            0               0.0005812644958496094 0
SCH1006823      -6.8            5.8             0               3.344573736190796 0
SCH1006825	-2	1	0	1000	0
SCH1006826	-6.6	5.6	0	1000	0
SCH1006791	3.25	1.674129037	0	1000	0
SCH1006793	-2	1	0	1000	0
SCH1006828	-6.6	5.6	0	1000	0
SCH1006776	-2	1	0	1000	0
SCH1006777	-2.37	1.37	0	1000	0
SCH1006778	-2	1	0	1000	0
SCH1006780	-2	1	0	1000	0
SCH1006782	-2	1	0	1000	0
SCH1006815	-6.5	5.5	0	1000	0
SCH1006816	-2	1	0	1000	0
SCH1006817	2.37	0.50336187	0	1000	0
SCH1006818	-1.53	3.021303094	0	1000	0
SCH1006819	-2	1	0	1000	0
SCH1006784      2.37            2.546948512     0               1.3936798572540283 0
SCH1006785	2.37	0.636179512	0	1000	0
SCH1006786	2.45	1.568862822	0	1000	0
SCH1006787      3.25            1.606539796     0               0.0004906654357910156 0
SCH1006788      2.37            2.59722374      0               0.0005354881286621094 0
SCH1006795	-1.29632892	2.29632892	0	1000	0
SCH1006796	-2	1	0	1000	0
SCH1006797	2.37	2.63	0	1000	0
SCH1006798	3.25	1.410729224	0	1000	0
SCH1006799	2.45	2.198670758	0	1000	0
SCH1006800      -3.710486622946 8.706473832946  0               0.0004949569702148438 0
SCH1006801      2.37            2.582635855     0               0.0004916191101074219 0
SCH1006803	-6.6	10.614001372	0	1000	0
SCH1006805	-6.6	5.6	0	1000	0
SCH1006807	-6.3	5.3	0	1000	0
SCH1006809	-1.61	6.59891097	0	1000	0
SCH1006810      3.25            2.229615087     0               0.0004906654357910156 0
SCH1006811      3.25            1.864951247     0               0.0017261505126953125 0
SCH1006812	2.37	2.473318567	0	1000	0
SCH1006814	-2	1	0	1000	0
SCH1006789	2.45	1.673997959	0	1000	0
SCH1006837	-3.25	2.25	0	1000	0
SCH1014763      -1.1            6.1             0               0.3249545097351074 0
SCH1014764      -1.4            6.4             0               0.3249545097351074 0
SCH1014766      -2              7               0               0.3249545097351074 0
SCH1014767      -2.9            7.9             0               0.3249545097351074 0
SCH1014768      -3.2            8.2             0               0.9927668571472168 0
SCH1014769      -3.5            8.697021276     0               2.041694164276123 0
SCH1014770      1.45            5.498823764     0               0.011510372161865234 0
SCH1014780      -4.1            9.1             0               0.011510372161865234 0
SCH1018841      -5.9            10.9            0               0.8768258094787598 0
SCH1018842      -6.2            7.282859761     0               0.8768258094787598 0
SCH1018845      -4.5            9.350469475     0               0.02004528045654297 0
SCH1014759      -3.2            8.2             0               0.03894758224487305 0
SCH1014761      -3.5            8.5             0               0.03894758224487305 0
SCH1014762      -3.8            8.8             0               0.03894758224487305 0
SCH1014620      -5              10              0               1.9693255424499512 0
SCH1014621      -4.4            9.4             0               1.9693255424499512 0
SCH1014752      -1.7            6.746779864     0               1.9693255424499512 0
SCH1014753      -5.3            10.554908417    0               1.9693255424499512 0
SCH1014754      -0.25           5.504908417     0               1.9693255424499512 0
SCH1014622      -5.6            10.6            0               0.8768258094787598 0
SCH1012680	-6.5	5.5	0	1000	0
SCH1012700      -0.6            5.6             0               0.0005393028259277344 0
SCH1014747      -5.9            9.9             0               1.916022539138794 0
SCH1014748      -5.6            10.645719918    0               2.015993595123291 0
SCH1014757      -2.6            8.6             0               1.0247306823730469 0
SCH1014758      -2.9            7.9             0               0.03894758224487305 0
SCH1014628      -3.7            10.62682116     0               0.020003318786621094 0
SCH1014629      -3.8            10.456761071    0               0.020003318786621094 0
SCH1014630      -4              8               0               0.3981447219848633 0
SCH1014631      -4.7            9.7             0               0.3981447219848633 0
SCH1014635      -5              10.013873984    0               0.042333126068115234 0
SCH1018847      -0.56           5.498547291     0               0.0044918060302734375 0
SCH1012701	-1.51	5.497024046	0	1000	0
SCH1012660	-1.5	5.5	0	1000	0
SCH1018853	-1.5	3.755618209	0	1000	0
SCH1018854	-7.5	10.054669202	0	1000	0
SCH1018848	-3.2	7.815720818	0	1000	0
SCH1018849      -7.4            12.347367577    0               0.0044918060302734375 0
SCH1018850      -0.3            5.496898602     0               0.0044918060302734375 0
SCH1018852	-8	12.752006488	0	1000	0
SCH1018870      1.5             2.5             0               0.00845193862915039 0
SCH1018871      0.5             4.594233714     0               0.15641450881958008 0
SCH1018857	-3.2	7.71191115	0	1000	0
SCH1024546	-5.52	4.52	0	1000	0
SCH1024547	0.3	5.498161123	0	1000	0
SCH1024548	-1.57	6.502250227	0	1000	0
SCH1006766	2.37	2.154188647	0	1000	0
SCH1006771	-1.74316445797	6.03600749197	0	1000	0
SCH1006822      -0.6            5.6             0               0.0             0
SCH1006792	-3.25	2.25	0	1000	0
SCH1006779	-2	1	0	1000	0
SCH1006783	2.37	1.743623242	0	1000	0
SCH1006802	-0.6	5.566997742	0	1000	0
SCH1006813	3.25	0.950453778	0	1000	0
SCH1014756      -2              7.254908417     0               1.9693255424499512 0
SCH1018856	-7.5	12.5	0	1000	0
SCH1018851      -4              8.743021957     0               0.0017375946044921875 0
SCH1012661	-1.5	2.5	0	1000	0
SCH1014627      -3.6            2.6             0               0.020015239715576172 0
SCH1038285      2.73            1.569692685     0               0.0             0
SCH1038284      2.86            2.14            0               0.0             0
SCH1038286	-4.01	5.501303094	0	1000	0
SCH1038287      -4.11           9.11            0               0.0             0
SCH1038288	-2	1	0	1000	0
SCH1012721	-6.6	5.6	0	1000	0
SCH1012702	-1.47	5.496202047	0	1000	0
SCH1006781	-2	1	0	1000	0
SCH1014765      -1.7            6.7             0               0.3249545097351074 0
SCH1014771      -5.3            7.302474576     0               0.2286691665649414 0
SCH1018844      -1.15           5.500170015     0               0.0             0
SCH1014755      -2.3            8.3             0               1.0247306823730469 0
SCH1014625      -3.5            2.5             0               0.020015239715576172 0
SIH1001374	-1.43	5.500270289	0	1000	0
SIH1001375      2.37            3.06726925      0               0.0017461776733398438 0
SIH1001379      -0.5            5.5             0               0.0             0
SIH1001378	-6.4	7.47405756	0	1000	0
SMH1012454      2.93            2.07            0               0.0006093978881835938 0
SMH1012456      3.5             1.489298517     0               0.0012698173522949219 0
SMH1012458      3.01            1.978459032     0               0.0004906654357910156 0
SMH1012459      -1.220136056136 6.215307851136  0               0.0             0
SMH1012460	3.2	1.549486376	0	1000	0
SMH1012461	3.45	1.403266752	0	1000	0
SMH1037662      -6.5            8.025471557     0               0.8768258094787598 0
SMH1037674	-9	13.752006488	0	1000	0
SMH1043235	-6.6	12.177735558	0	1000	0
SMH1043043	-2.3	6.906377312	0	1000	0
SMH1043044	-2.1	8.028537335	0	1000	0
SMH1043045	-2	1	0	1000	0
SMH1043042	-4	9.785133344	0	1000	0
SMH1064904      2.62            1.679692685     0               0.0             0
SMH1064905	-2	1	0	1000	0
SMH1064911	-2.3	1.3	0	1000	0
SMH1064912      -2.1            7.1             0               0.0             0
SMH1012455      2.27            2.628793606     0               0.0004906654357910156 0
EC86            -8.3            12.27812579     0               0.0             0
SGJ1012740      1.2             3.8             0               0.011557579040527344 0
EC114           -8.9            13.9            0               0.02004528045654297 0
SGJ1018641	-6.8	5.8	0	1000	0
SGJ1021084	-9.8	13.335404688	0	1000	0
SGJ1012946      -5.8            10.632015384    0               0.05409669876098633 0
SGJ1021102	-4.6	9.6	0	1000	0
SGJ1021103      -1.77           6.782643946     0               0.15641450881958008 0
SGJ1012945      -2.5            7.5             0               1.2895317077636719 0
SGJ1020160	-6.5	5.5	0	1000	0
SGJ1020161	-6.5	5.5	0	1000	0
SGJ1021101      -8.6            13.523815538    0               0.0             0
SGJ1020205	-7	6	0	1000	0
SGJ1021083	-10.7	14.580524779	0	1000	0
SGJ1020220	-6.5	5.5	0	1000	0
SGJ1036119	-0.9	5.497627331	0	1000	0
SGJ1036120	-1	5.974241921	0	1000	0
SGJ1035671	-6.1	11.1	0	1000	0
EC549           -1.87           7.975270169     0               0.020003318786621094 0
EC619           -8              13              0               0.03841114044189453 0
EC844	-11	10	0	1000	0
SGJ1012947	-6.2	9.112998107	0	1000	0
SGJ1027700	-0.58	5.59790489	0	1000	0
XMY1001083	-6.5	5.5	0	1000	0
B42             -6.8            11.8            0               0.011510372161865234 0
XPS1001001      -6.5            11.5            0               0.011510372161865234 0
B308            -7.1            12.1            0               0.011510372161865234 0
SSH1001241      -5.3            10.313873984    0               0.042333126068115234 0
SCH1006740	1.1	3.778064994	0	1000	0
SSH1001240      -4.7            9.7             0               1.9693255424499512 0
PSQ000197       3.55            1.283335609     0               0.000507354736328125 0
PSQ000200	-6.5	5.5	0	1000	0
PSQ000201	-5	4	0	1000	0
PSQ000379       -0.5            5.5             0               0.0             0
PSQ000380	-6.5	5.5	0	1000	0
PSQ000384	-6.5	5.5	0	1000	0
PSQ000430	-5.42	5.496603936	0	1000	0
PSQ000482	-1	4.880524779	0	1000	0
PSQ000483	-0.5	5.5	0	1000	0
PSQ000530       2               1.140311348     0               0.016872882843017578 0
PSQ000583	-0.5	5.5	0	1000	0
PSQ001808       -0.5            5.5             0               0.0017461776733398438 0
PSQ001958	-0.6	5.49912987	0	1000	0
PSQ002956	-0.5	5.5	0	1000	0
PSQ002957       2.5             2.5             0               0.0004982948303222656 0
PSQ002958	-0.5	5.5	0	1000	0
PSQ003010       -5              10              0               1.9693255424499512 0
PSQ003060	2.41	1.674917226	0	1000	0
PSQ003130	-0.5	1.5	0	1000	0
PSQ003146       -0.8            5.8             0               0.3249545097351074 0
PSQ003163	-6.5	5.5	0	1000	0
PSQ003235	-0.62	5.498064994	0	1000	0
PSQ003237       3.28            1.487396893     0               0.0004906654357910156 0
PSQ003281	-6.5	5.5	0	1000	0
PSQ003323	0	2	0	1000	0
PSQ003324	2.38	0.37	0	1000	0
PSQ003346	3.7	1.3	0	1000	0
PSQ003370       3.55            1.43891097      0               0.0005311965942382812 0
PSQ003371       -0.59           5.496420593     0               0.0004911422729492188 0
PSQ004100       2.4             1.615978985     0               0.0006413459777832031 0
PSQ004538       -0.5            5.5             0               0.3249545097351074 0
Pipe334         -2.3            7.3             0               0.3249545097351074 0
SGJ1035661	-6.7	5.7	0	1000	0
Pipe207         -9.4            14.347367577    0               0.0044918060302734375 0
XMY1000784	-9.1	13.776931153	0	1000	0
XMY1000785      -8.5            11.5            0               0.0044918060302734375 0
Pipe208         -6.8            11.8            0               1.0441386699676514 0
Pipe217	-6.2	10.00804349	0	1000	0
SGJ1035676	-0.48	5.497474251	0	1000	0
SGJ1035675	-6.5	5.5	0	1000	0
XMY1000780      -9.5            14.350354793    0               0.0017461776733398438 0
Pipe529         -2.6            7.6             0               0.3249545097351074 0
Pipe575         -0.5            5.5             0               0.15641450881958008 0
XMY1000787      -8.7            13.550469475    0               0.02004528045654297 0
J21295	-6.5	5.5	0	1000	0
J21296	-6.5	5.5	0	1000	0
J21297	-6.5	5.5	0	1000	0
J21298	-6.5	5.5	0	1000	0
J21300	-6.5	5.5	0	1000	0
J21302	-6.5	5.5	0	1000	0
J21303	-6.5	5.5	0	1000	0
J21304	-6.5	5.5	0	1000	0
J21307	-6.5	5.5	0	1000	0
J21310	-6.5	5.5	0	1000	0
J21311	-6.9	5.9	0	1000	0
J21315	-6.5	5.5	0	1000	0
J21316	-6.5	5.5	0	1000	0
J21317	-6.5	5.5	0	1000	0
J21320	-6.6	5.6	0	1000	0
J21322	-6.5	5.5	0	1000	0
J21323	-6.5	5.5	0	1000	0
J21327	-6.8	5.8	0	1000	0
J21330	-10.4	15.076931153	0	1000	0
J21331          -10.1           15.047367577    0               0.0044918060302734375 0
J21332          -9.5            12.822258898    0               0.0044918060302734375 0
J21333	-9.2	14.2	0	1000	0
J21334          -1.67           6.67            0               0.15641450881958008 0
J21336	-7	10.80804349	0	1000	0
J21337          -6.2            10.2            0               1.916022539138794 0
J21338          -7.4            12.4            0               0.011510372161865234 0
J21342          -7.7            12.7            0               1.0441386699676514 0
J21752	-6.3	7.426055317	0	1000	0
J21753	-6	9.206665556	0	1000	0
J21754          -5.9            9.925046342     0               0.043720245361328125 0
J21755          -5.7            10.7            0               1.2895317077636719 0
J21756          -1.5            0.5             0               0.1936025619506836 0
J21757          -0.5            4.426393702     0               0.1936025619506836 0
J21758          0.6             4.4             0               0.011557579040527344 0
SMH1046741      0.4             2.6             0               0.15450716018676758 0
SMH1046742      0.2             2.800000000001  0               0.020020008087158203 0
SMH1046743      -0.8            5.928165331     0               0.0             0
SMH1046712      1.2             1.796623281     0               0.020015716552734375 0
SGJ1011038	-8.5	7.5	0	1000	0
SNF1003925	-2.5	1.5	0	1000	0
SNF1003924	-4.5	3.5	0	1000	0
SNF1003749	-4	3	0	1000	0
SNF1009260	-1.58	5.504259457	0	1000	0
SCH1019700      -0.67           5.504994071     0               0.0             0
SCH1024580      -0.66           5.66            0               3.384045362472534 0
SCH1019686      -1.21           7.915419703     0               0.012413978576660156 0
SCH1019688      -1.61           6.429450556     0               0.0200042724609375 0
SCH1019693      -0.87           5.961061009     0               0.0200042724609375 0
SCH1019221      3.15            1.85            0               0.011510372161865234 0
SCH1019781      -3.81           6.81            0               0.007351875305175781 0
SCH1019782      -4.15           9.15            0               0.0             0
SCH1019783      -1.6            6.6             0               0.0             0
SCH1019784      -1.6            6.6             0               0.0             0
SCH1019790      -5.51           9.606378702     0               0.0017313957214355469 0
SCH1019792      -3.87           7.966378702     0               0.0017313957214355469 0
SCH1019795      -1.4            5.4             0               0.0             0
SCH1019796	-1.5	5.5	0	1000	0
SCH1024507	-6.8	10.860444244	0	1000	0
SCH1024508	-6.7	10.760444244	0	1000	0
SCH1024509	-6.6	11.6	0	1000	0
SCH1024510	-6.5	5.5	0	1000	0
SCH1024600      -0.66           4.771244482     0               0.0021605491638183594 0
SCH1024601      3.29            1.71            0               0.0010929107666015625 0
SCH1024501	-3.67	7.219083137	0	1000	0
SCH1024505	2.63	10.37	0	1000	0
SCH1019260      -1              4               0               0.011557579040527344 0
SCH1019400      -2.77           6.552843529     0               0.0028238296508789062 0
SCH1019401      1.25            3.75            0               0.004490852355957031 0
SCH1019793      -1.3            5.999213385     0               0.0             0
SCH1019261      -2.6            8.637434726     0               0.011557579040527344 0
SCH1019281      -0.5            5.5             0               0.011557579040527344 0
SCH1024503      1.27            3.246596719     0               0.0             0
SCH1024550      -0.5            5.5             0               0.004481792449951172 0
SCH1024551      2.24            1.850703583     0               0.0017461776733398438 0
SCH1024561      -2.52           7.52            0               3.376737594604492 0
SCH1024562	-2.42	5.498069326	0	1000	0
SCH1019682      -1.11           2.640208184     0               0.02001190185546875 0
SCH1024549	2	3.186271478	0	1000	0
SCH1024480      1.14            0.86            0               0.019876956939697266 0
SCH1024520	3.019	0.981	0	1000	0
SCH1024521	-1.6	6.6	0	1000	0
SCH1024522	-1.59	6.59	0	1000	0
SCH1024523	3.37	0.690284987	0	1000	0
SCH1024540	-6.6	11.6	0	1000	0
SCH1024620      -2.5            5.5             0               0.0044918060302734375 0
SCH1024621      1.935           1.065           0               0.0044918060302734375 0
SCH1024602      -4.3            13.3            0               0.0017461776733398438 0
SCH1024603      -0.7            5.7             0               0.002289295196533203 0
SCH1019220      2.8             4.2             0               0.011510372161865234 0
SCH1019283      -0.81           5.81            0               0.011532783508300781 0
SCH1024506	-0.6	4.677602221	0	1000	0
SCH1024606      -1.27           7.160380795     0               0.0017533302307128906 0
SCH1019794      -1              5               0               0.0             0
SCH1019760      -1.9            4.9             0               0.0             0
SCH1024542	-0.6	6.406251496	0	1000	0
SCH1019280      -0.6            5.6             0               0.011557579040527344 0
SCH1024541	-2	1	0	1000	0
SCH1019780      -1.8            5.8             0               0.001796126365661621 0
SCH1019694      -0.77           5.77            0               0.010961294174194336 0
SCH1019789      -5.17           10.155683214    0               0.0017461776733398438 0
SCH1024560      -0.5            5.5             0               0.004481792449951172 0
SCH1024605      -1.27           6.27            0               0.0044612884521484375 0
SIH1003840      -1.8            5.896378702     0               0.0017313957214355469 0
SIH1003780      2.15            2.85            0               0.011532783508300781 0
SIH1001334      2.57            0.78862471      0               0.0             0
SMH1020491      -2.5            12.5            0               0.011510372161865234 0
SMH1032202      -2.3            12.3            0               0.011510372161865234 0
SMH1043080      -3.872425179728 8.872425179728  0               3.3769843578338623 0
SMH1038545      -1.51           6.329450556     0               0.0200042724609375 0
SMH1038080      -0.210503988357 5.308303988357  0               0.011557579040527344 0
SMH1038621      -5.85           9.946378702     0               0.0017313957214355469 0
SMH1043100      -2.75007589559  6.86132037759   0               0.0021605491638183594 0
SMH1043101      1.4             3.6             0               0.0010929107666015625 0
SMH1038240      -0.5            3.5             0               0.012387275695800781 0
SMH1038241      -1              3.840882927     0               0.007381916046142578 0
SMH1038100      -2              5               0               0.011557579040527344 0
SMH1038101      -2.1            7.1             0               0.01153421401977539 0
SMH1038102      -2.3            7.281436002     0               0.01153421401977539 0
SMH1038283      -2.87           6.652843529     0               0.0028238296508789062 0
SMH1038121      1.214952805     2.000047195     0               0.011510372161865234 0
SMH1037260      2.47            2.53            0               0.0023403167724609375 0
SMH1037261      2.44            2.56            0               0.011510372161865234 0
SMH1037262      1.33            5.604688981     0               0.011857032775878906 0
SMH1043049	2.14	1.86	0	1000	0
SMH1038541      -1.21           3.930206184     0               0.02001190185546875 0
SMH1038542      -1.31           5.31            0               0.020008563995361328 0
SMH1038543      -1.41           4.653867199     0               0.02000713348388672 0
SMH1043120	-5.5	10.5	0	1000	0
SMH1043020	-2	1	0	1000	0
SMH1020492      -2.6            12.6            0               0.011510372161865234 0
SMH1038620      -6.19           10.286378702    0               0.0017313957214355469 0
SMH1043048	2.14	2.513591359	0	1000	0
SMH1038284      -4.5            9.5             0               0.0017271041870117188 0
SMH1038220      -0.5            4.5             0               0.0             0
SMH1038285      -3.5            8.5             0               0.004490852355957031 0
SMH1043102      -4.3            13.3            0               0.0017461776733398438 0
SMH1038103      -2.7            8.564798005     0               0.011557579040527344 0
SMH1037263      2.48            2.52            0               0.0023403167724609375 0
SGJ1036282      -2.75           10.75           0               0.011510372161865234 0
SGJ1018660	-6.6	5.6	0	1000	0
SGJ1014750	-6.5	5.5	0	1000	0
EC184	-7	6	0	1000	0
EC262           -3.6            7.6             0               0.011557579040527344 0
SGJ1018648	-6.6	5.6	0	1000	0
SGJ1018650	-6.6	5.6	0	1000	0
SGJ1034805	-2.79	5.495924642	0	1000	0
SGJ1035316      -3.47           5.502672989     0               0.020006656646728516 0
SGJ1035806      -3.5            8.5             0               0.011557579040527344 0
SGJ1036284      -4              13              0               0.0017275810241699219 0
SGJ1034806      -3.57           7.439450086     0               0.0011916160583496094 0
SGJ1035815      -2.9            8.764798005     0               0.011557579040527344 0
SGJ1036285      -2.81           5.81            0               0.0023403167724609375 0
B130	-7	6	0	1000	0
SGJ1036287      -2.01           5.954066355     0               0.015438318252563477 0
SGJ1036289      -2.51           8.594749904     0               0.007599353790283203 0
SGJ1036286      -3.51           6.555159402     0               0.0             0
B417            -2.11           5.169867493     0               0.015438318252563477 0
B461	-0.92	5.501112762	0	1000	0
SGJ1036290      -2.61           8.694749904     0               0.007599353790283203 0
SGJ1037328	-0.7	5.496316494	0	1000	0
SGJ1014781	-0.5	5.5	0	1000	0
SCH1038738	-2.5	5.5	0	1000	0
PSQ000391       -1.01           5.01            0               0.00022983551025390625 0
PSQ000393       -2.77           7.503340108     0               0.0044918060302734375 0
PSQ000424       -0.01           5.502617364     0               0.007599353790283203 0
PSQ000443       -0.5            9.5             0               0.0             0
PSQ000444       -0.5            5.5             0               0.0017371177673339844 0
PSQ000447	-6.2	5.2	0	1000	0
PSQ000448	-0.5	5.5	0	1000	0
PSQ000529       -1.57           4.500489875     0               0.007381916046142578 0
PSQ000709       -4.83           9.83            0               0.004490852355957031 0
PSQ000841	-0.5	5.5	0	1000	0
PSQ001914       -0.6            5.6             0               0.0017375946044921875 0
PSQ001933       -1.17           5.497659469     0               0.0017418861389160156 0
PSQ001938	-1.5	5.5	0	1000	0
PSQ001940       -1.49           5.495932293     0               0.0017261505126953125 0
PSQ001957       -0.56           5.496394976     0               0.0004982948303222656 0
PSQ002093       -4.2            13.2            0               0.0017609596252441406 0
PSQ002609       -0.56           5.499918529     0               0.0017366409301757812 0
PSQ002641       2.33            1.760703583     0               0.0017461776733398438 0
PSQ002667       -3.61           6.806559073     0               0.007351875305175781 0
PSQ004145       -1.37           6.37            0               0.0044612884521484375 0
PSQ004324       -0.6            5.6             0               0.004481792449951172 0
PSQ004479       -1.7            6.7             0               0.0             0
PSQ004480       -4.49           9.49            0               0.0             0
PSQ004483       -0.6            5.6             0               0.004481792449951172 0
PSQ004488       1.43            5.504688981     0               0.011857032775878906 0
SCH1024623      1.64            1.36            0               0.0             0
SMH1065409	2.3	3.707551598	0	1000	0
SMH1042961      2.083350916     1               0               0.0017337799072265625 0
SMH1042980	1.863258444	1	0	1000	0
SGJ1014801      -6.5            5.5             0               3.3952901363372803 0
SCH1024624      1.81            1.19            0               0.0             0
SMH1065424	-2.6	5.6	0	1000	0
Pipe198	-6.5	5.5	0	1000	0
Pipe200         -1.31           7.72331774      0               0.012413978576660156 0
Pipe201         -1.71           6.529450556     0               0.0200042724609375 0
Pipe202         -2.31           8.705047448     0               0.007599353790283203 0
Pipe205         -2.22           5.497887289     0               0.0             0
Pipe215         -1.61           6.429450556     0               0.0200042724609375 0
Pipe216         -2.41           8.805047448     0               0.007599353790283203 0
Pipe219         -1.91           6.525252405406  0               0.010961294174194336 0
Pipe220         -2.21           6.193256764     0               0.015438318252563477 0
Pipe401	-1.5	5.5	0	1000	0
XMY1000862      -1.812591292622 7.677389297622  0               0.011557579040527344 0
XMY1000860      1.114952805     8.885047195     0               0.011510372161865234 0
Pipe420         -2.760995175545 8.798429901545  0               0.011557579040527344 0
XMY1000863      -1.91           6.91            0               0.011532783508300781 0
Pipe528         -1.41           7.316583646     0               0.0200042724609375 0
J34953	-6.6	5.6	0	1000	0
J34954	-6.5	5.5	0	1000	0
J34955	-6.6	5.6	0	1000	0
J34956	-6.6	5.6	0	1000	0
J34957	-6.6	5.6	0	1000	0
J34958	-6.6	5.6	0	1000	0
SNF1002571      2.53            0.82862471      0               0.0             0
SNF1002572      -2              1               0               0.015429258346557617 0
SNF1007901	-2	1	0	1000	0